Version 4
SHEET 1 880 680
FLAG 320 304 COM
TEXT 296 240 Left 2 ;COM
