Version 4
SHEET 1 880 680
FLAG 112 192 0
TEXT 88 136 Left 2 ;GND
