Version 4
SHEET 1 880 680
FLAG 208 288 0
FLAG 320 304 COM
FLAG 448 208 Vp
FLAG 480 256 Vin
IOPIN 480 256 In
FLAG 416 320 Vout
IOPIN 416 320 Out
FLAG 400 384 Trans
IOPIN 400 384 BiDir
TEXT 184 240 Left 2 ;GND
TEXT 296 240 Left 2 ;COM
TEXT 520 200 Left 2 ;None
TEXT 520 256 Left 2 ;Input
TEXT 520 320 Left 2 ;Output
TEXT 520 384 Left 2 ;Bi-Direct
