Version 4
SHEET 1 3528 680
WIRE 528 -576 528 -624
WIRE 528 -448 528 -496
WIRE 464 -400 368 -400
WIRE 528 -320 528 -352
WIRE 224 -288 224 -320
WIRE 368 -288 368 -400
WIRE 224 -192 224 -208
WIRE 368 -192 368 -208
WIRE 528 -192 528 -240
FLAG 224 -192 0
FLAG 224 -320 Vcc
FLAG 528 -624 Vcc
FLAG 528 -192 0
FLAG 368 -192 0
SYMBOL voltage 224 -304 R0
WINDOW 123 0 0 Left 0
WINDOW 39 0 0 Left 0
SYMATTR InstName V1
SYMATTR Value 15
SYMBOL res 512 -592 R0
SYMATTR InstName R1
SYMATTR Value 100
SYMBOL npn 464 -448 R0
SYMATTR InstName Q1
SYMATTR Value 2N2222
SYMBOL voltage 368 -304 R0
WINDOW 123 0 0 Left 0
WINDOW 39 0 0 Left 0
SYMATTR InstName V2
SYMATTR Value 4
SYMBOL res 512 -336 R0
SYMATTR InstName R2
SYMATTR Value 50
TEXT 48 -632 Left 2 !.dc V2 0 10 0.25 V1 5 15 0.5
