Version 4
SHEET 1 880 680
WIRE -48 96 -176 96
WIRE 144 96 32 96
WIRE -176 144 -176 96
WIRE 144 160 144 96
WIRE -176 256 -176 224
WIRE 144 256 144 224
FLAG -176 256 0
FLAG 144 256 0
SYMBOL Misc\\signal -176 128 R0
WINDOW 123 24 132 Left 2
WINDOW 39 0 0 Left 0
SYMATTR InstName V1
SYMATTR Value2 AC 1
SYMBOL res 48 80 R90
WINDOW 0 0 56 VBottom 2
WINDOW 3 32 56 VTop 2
SYMATTR InstName R1
SYMATTR Value {mc(10k,0.01)}
SYMBOL cap 128 160 R0
SYMATTR InstName C1
SYMATTR Value {mc(100n,0.05)}
TEXT -744 64 Left 2 !.ac dec 100 1 10k
TEXT -744 104 Left 2 !.step param run 1 20 1
TEXT -736 160 Left 2 ;159.15Hz
